LAMMPS (29 Sep 2021 - Update 3)

# ----------------- Init Section -----------------

include "system.in.init"
    # Default styles and settings for AMBER based force-fields:
    units           real
    atom_style      full
    bond_style      hybrid harmonic
    angle_style     hybrid harmonic
    dihedral_style  hybrid fourier
    improper_style  hybrid cvff
    pair_style      hybrid lj/charmm/coul/long 9.0 10.0 10.0
    kspace_style    pppm 0.0001

    # NOTE: If you do not want to use long-range coulombic forces,
    #       comment out the two lines above and uncomment this line:
    # pair_style      hybrid lj/charmm/coul/charmm 9.0 10.0

    pair_modify     mix arithmetic
    special_bonds   amber

boundary  p p p

# ----------------- Atom Definition Section -----------------

read_data "cleanedsystem.data" extra/bond/per/atom 1 extra/angle/per/atom 12 extra/dihedral/per/atom 12 extra/improper/per/atom 12 extra/special/per/atom 12
Reading data file ...
  orthogonal box = (0.0000000 0.0000000 0.0000000) to (20.000000 20.000000 20.000000)
  reading atoms ...
  92 atoms
  scanning bonds ...
  scanning angles ...
  scanning dihedrals ...
  scanning impropers ...
  reading bonds ...
  92 bonds
  reading angles ...
  130 angles
  reading dihedrals ...
  184 dihedrals
  reading impropers ...
  22 impropers
Finding 1-2 1-3 1-4 neighbors ...
     3 = max # of 1-2 neighbors
     6 = max # of 1-3 neighbors
    11 = max # of 1-4 neighbors
    25 = max # of special neighbors

# ----------------- Settings Section -----------------

include "cleanedsystem.in.settings"
pair_coeff 1 1 lj/charmm/coul/long 0.0860 3.39966950842 # OPLS
pair_coeff 2 2 lj/charmm/coul/long 0.0860 3.39966950842 # OPLS
pair_coeff 3 3 lj/charmm/coul/long 0.0150 2.59964245953 # Spellmeyer
pair_coeff 4 4 lj/charmm/coul/long 0.0157 1.06907846177 # !Ferguson base pair geom.
pair_coeff 5 5 lj/charmm/coul/long 0.0000 0.0 # OPLS Jorgensen, JACS,110,(1988),1657
pair_coeff 6 6 lj/charmm/coul/long 0.1700 3.24999852378 # OPLS
pair_coeff 7 7 lj/charmm/coul/long 0.1700 3.24999852378 # OPLS
pair_coeff 8 8 lj/charmm/coul/long 0.2100 2.95992190115 # OPLS
pair_coeff 9 9 lj/charmm/coul/long 0.2104 3.06647338784 # OPLS
bond_coeff 1 harmonic 478.4 1.3870 # SOURCE1 6228 0.0147
bond_coeff 2 harmonic 344.3 1.0870 # SOURCE3 1496 0.0045
bond_coeff 3 harmonic 372.3 1.4220 # SOURCE3 9 0.0098
bond_coeff 4 harmonic 449.0 1.3640 # SOURCE1 137 0.0085
bond_coeff 5 harmonic 349.7 1.4870 # SOURCE1 480 0.0055
bond_coeff 6 harmonic 478.2 1.3450 # SOURCE1 1235 0.0215
bond_coeff 7 harmonic 648.0 1.2140 # SOURCE1 3682 0.0165
bond_coeff 8 harmonic 466.4 1.3060 # SOURCE1 271 0.0041
bond_coeff 9 harmonic 410.2 1.0090 # SOURCE3 149 0.0098
bond_coeff 10 harmonic 401.2 1.0140 # SOURCE3 209 0.0091
bond_coeff 11 harmonic 369.6 0.9740 # SOURCE3 367 0.0105
angle_coeff 1 harmonic 67.18 119.97 # SOURCE3 1969 0.3480
angle_coeff 2 harmonic 48.46 120.01 # SOURCE3 2980 0.2511
angle_coeff 3 harmonic 67.97 119.89 # SOURCE3 18 0.2095
angle_coeff 4 harmonic 69.34 120.13 # SOURCE3 193 0.6341
angle_coeff 5 harmonic 64.64 120.14 # SOURCE3 40 0.4788
angle_coeff 6 harmonic 68.47 115.14 # SOURCE4 571 1.4648
angle_coeff 7 harmonic 68.67 123.44 # SOURCE3 18 2.5574
angle_coeff 8 harmonic 70.11 113.44 # SOURCE4 222 0.8421
angle_coeff 9 harmonic 75.83 122.03 # SOURCE3 221 2.3565
angle_coeff 10 harmonic 77.38 122.88 # SOURCE3 33 2.1896
angle_coeff 11 harmonic 47.36 115.94 # SOURCE4 537 1.8890
angle_coeff 12 harmonic 64.29 123.71 # SOURCE3 10 3.8159
angle_coeff 13 harmonic 49.21 118.46 # SOURCE3 157 2.4094
angle_coeff 14 harmonic 49.08 116.13 # SOURCE4 1780 1.2853
angle_coeff 15 harmonic 51.19 107.37 # SOURCE3 34 1.6830
dihedral_coeff 1 fourier 1 1.0 2 180.0 # optimized by Junmei Wang, Jan-2013
dihedral_coeff 2 fourier 1 2.5 2 180.0 # AA,NMA (no c-n3, c-n4, c-nh)
dihedral_coeff 3 fourier 1 2.3 2 180.0 # Junmei et al, 1999
dihedral_coeff 4 fourier 1 3.625 2 180.0 # intrpol.bsd.on C6H6
dihedral_coeff 5 fourier 1 0.45 2 180.0 #
dihedral_coeff 6 fourier 1 1.05 2 180.0 #
dihedral_coeff 7 fourier 2 2.5 2 180.0 2.0 1 0.0 # JCC,7,(1986),230
dihedral_coeff 8 fourier 2 2.3 2 180.0 1.9 1 0.0 # Junmei et al, 1999
improper_coeff 1 cvff 10.5 -1 2 # JCC,7,(1986),230
improper_coeff 2 cvff 1.1 -1 2 # bsd.on C6H6 nmodes
improper_coeff 3 cvff 1.1 -1 2 # JCC,7,(1986),230

# ----------------- Run Section -----------------

molecule 	pre pre_molecule.data
Read molecule template pre:
  1 molecules
  0 fragments
  18 atoms with max type 7
  16 bonds with max type 9
  20 angles with max type 12
  20 dihedrals with max type 5
  4 impropers with max type 2
molecule	post post_molecule.data
Read molecule template post:
  1 molecules
  0 fragments
  18 atoms with max type 7
  17 bonds with max type 8
  24 angles with max type 11
  28 dihedrals with max type 6
  6 impropers with max type 3

neighbor		2.5 bin
neigh_modify	every 1 delay 0 check yes
dielectric 		10

# Initial equilibration
dump		init all xtc 500 init.xtc
dump_modify init pbc yes
thermo_style    custom step temp press pe ke etotal epair ebond eangle edihed eimp vol lx ly lz
thermo      500

min_style   sd
minimize 	0 0 10000 10000
PPPM initialization ...
  G vector (1/distance) = 0.21452885
  grid = 6 6 6
  stencil order = 5
  estimated absolute RMS force accuracy = 0.0045036855
  estimated relative force accuracy = 1.3562715e-05
  3d grid and FFT values/proc = 1331 216
  update every 1 steps, delay 0 steps, check yes
Step Temp Press PotEng KinEng TotEng E_pair E_bond E_angle E_dihed E_impro Volume Lx Ly Lz
0            0    23818.435    643.08052            0    643.08052    632.42456    1.6674864    1.3876636    7.6007542 5.6080819e-05         8000           20           20           20
Loop time of 0.454488 on 1 procs for 818 steps with 92 atoms

Minimization stats:
  Stopping criterion = linesearch alpha is zero
  Energy initial, next-to-last, final =
  Force two-norm initial, final = 1708.8261 1.0694684
  Force max component initial, final = 464.28504 0.29246010
  Final line search alpha, max atom move = 1.0190218e-08 2.9802322e-09
  Iterations, force evaluations = 818 2200

write_data	min.data
System init for write_data ...
PPPM initialization ...
  G vector (1/distance) = 0.21452885
  grid = 6 6 6
  stencil order = 5
  estimated absolute RMS force accuracy = 0.0045036855
  estimated relative force accuracy = 1.3562715e-05
  3d grid and FFT values/proc = 1331 216

timestep        1.0
velocity all create 300.0 123456 dist gaussian

fix 3 all nvt temp 300.0 300.0 100.0
run           100000
PPPM initialization ...
  G vector (1/distance) = 0.21452885
  grid = 6 6 6
  stencil order = 5
  estimated absolute RMS force accuracy = 0.0045036855
  estimated relative force accuracy = 1.3562715e-05
  3d grid and FFT values/proc = 1331 216
Step Temp Press PotEng KinEng TotEng E_pair E_bond E_angle E_dihed E_impro Volume Lx Ly Lz
818          300    419.15252   -1.4718196    81.376114    79.904295   -12.545264    1.5799472    1.3334901    8.1452232  0.014783553         8000           20           20           20
Averages over the last 101 of 202 rows, steps 51000 to 100818:
Temp Press PotEng KinEng TotEng E_pair E_bond E_angle E_dihed E_impro Volume Lx Ly Lz
305.182 -47.2926 60.5519 82.7819 143.334 -22.7084 31.0926 21.3806 29.6508 1.13634 8000 20 20 20
Loop time of 17.8643 on 1 procs for 100000 steps with 92 atoms

unfix 3

# fix 3 all npt temp 300 300 100 iso 1 1 100
# run           500
# unfix 3

# fix 3 all nvt temp 300.0 300.0 100.0
# run           500
# unfix 3

# fix 3 all npt temp 300 300 100 iso 1 1 100
# run           500
# unfix 3

# fix 3 all nvt temp 300.0 300.0 100.0
# run           500
# unfix 3

# fix 3 all npt temp 300 300 100 iso 1 1 100
# run           5000
# unfix 3

# fix 3 all nvt temp 300.0 300.0 100.0
# run           5000
# unfix 3

# fix 3 all npt temp 300 300 100 iso 1 1 100
# run           10000
# unfix 3

# fix 3 all nvt temp 300.0 300.0 100.0
# run           10000
# unfix 3

# fix 3 all npt temp 300 300 100 iso 1 1 100
# run           50000
# unfix 3

write_data	init.data
System init for write_data ...
PPPM initialization ...
  G vector (1/distance) = 0.21452885
  grid = 6 6 6
  stencil order = 5
  estimated absolute RMS force accuracy = 0.0045036855
  estimated relative force accuracy = 1.3562715e-05
  3d grid and FFT values/proc = 1331 216

# Polymerization
dump 		polym all xtc 500 react.xtc

fix		fxrct all bond/react stabilization yes statted_grp .03 		 react rxn1 all 100 0.0 3 pre post automap.data stabilize_steps 100
dynamic group bond_react_MASTER_group defined
dynamic group statted_grp_REACT defined

fix 		1 statted_grp_REACT nvt temp 300.0 300.0 100

fix 		4 bond_react_MASTER_group temp/rescale 1 300.0 300.0 1 1

thermo_style custom step f_fxrct[1]
thermo          500
run		      50000

CITE-CITE-CITE-CITE-CITE-CITE-CITE-CITE-CITE-CITE-CITE-CITE-CITE

Your simulation uses code contributions which should be cited:

- fix bond/react: reacter.org

@Article{Gissinger17,
 author = {J. R. Gissinger, B. D. Jensen, K. E. Wise},
 title = {Modeling chemical reactions in classical molecular dynamics simulations},
 journal = {Polymer},
 year =    2017,
 volume =  128,
 pages =   {211--217}
}

@Article{Gissinger20,
 author = {J. R. Gissinger, B. D. Jensen, K. E. Wise},
 title = {REACTER: A Heuristic Method for Reactive Molecular Dynamics},
 journal = {Macromolecules},
 year =    2020,
 volume =  53,
 pages =   {9953--9961}
}

CITE-CITE-CITE-CITE-CITE-CITE-CITE-CITE-CITE-CITE-CITE-CITE-CITE

PPPM initialization ...
  G vector (1/distance) = 0.21452885
  grid = 6 6 6
  stencil order = 5
  estimated absolute RMS force accuracy = 0.0045036855
  estimated relative force accuracy = 1.3562715e-05
  3d grid and FFT values/proc = 1331 216
  update every 1 steps, delay 0 steps, check yes
Step f_fxrct[1]
  100818            0
  101000            0
  101500            0
  102000            0
  102500            0
  103000            0
  103500            0
  104000            0
  104500            0
  105000            0
  105500            0
  106000            0
  106500            0
  107000            0
  107500            0
  108000            0
  108500            0
  109000            0
  109500            0
  110000            0
  110500            0
  111000            0
  111500            0
  112000            0
  112500            0
  113000            0
  113500            0
  114000            0
  114500            0
  115000            0
  115500            0
  116000            0
  116500            0
  117000            0
  117500            0
  118000            0
  118500            0
  119000            0
  119500            0
  120000            0
  120500            0
  121000            0
  121500            0
  122000            0
  122500            0
  123000            0
  123500            0
  124000            0
  124500            0
  125000            0
  125500            0
  126000            0
  126500            0
  127000            0
  127500            0
  128000            0
  128500            0
  129000            0
  129500            0
  130000            0
  130500            0
  131000            0
  131500            0
  132000            0
  132500            0
  133000            0
  133500            0
  134000            0
  134500            0
  135000            0
  135500            0
  136000            0
  136500            0
  137000            0
  137500            0
  138000            0
  138500            0
  139000            0
  139500            0
  140000            0
  140500            0
  141000            0
  141500            0
  142000            0
  142500            0
  143000            0
  143500            0
  144000            0
  144500            0
  145000            0
  145500            0
  146000            0
  146500            0
  147000            0
  147500            0
  148000            0
  148500            0
  149000            0
  149500            0
  150000            0
  150500            0
  150818            0
Loop time of 9.11472 on 1 procs for 50000 steps with 92 atoms

unfix 1
unfix 4

thermo_style    custom step temp press pe ke etotal epair ebond eangle edihed eimp vol lx ly lz
thermo      500

min_style   sd
minimize 	0 0 10000 10000
PPPM initialization ...
  G vector (1/distance) = 0.21452885
  grid = 6 6 6
  stencil order = 5
  estimated absolute RMS force accuracy = 0.0045036855
  estimated relative force accuracy = 1.3562715e-05
  3d grid and FFT values/proc = 1331 216
Step Temp Press PotEng KinEng TotEng E_pair E_bond E_angle E_dihed E_impro Volume Lx Ly Lz
150818    267.95991   -701.85899    57.389342    72.685121    130.07446   -29.498839    29.786561    25.221032    30.214581    1.6660073         8000           20           20           20
Loop time of 0.597265 on 1 procs for 1241 steps with 92 atoms

Minimization stats:
  Stopping criterion = linesearch alpha is zero
  Energy initial, next-to-last, final =
  Force two-norm initial, final = 357.82371 2.6874622
  Force max component initial, final = 70.950117 1.3934803
  Final line search alpha, max atom move = 1.0693486e-09 1.4901161e-09
  Iterations, force evaluations = 1241 2534

fix 3 all npt temp 300 300 100 iso 1 1 100
run           50000
PPPM initialization ...
  G vector (1/distance) = 0.21452885
  grid = 6 6 6
  stencil order = 5
  estimated absolute RMS force accuracy = 0.0045036855
  estimated relative force accuracy = 1.3562715e-05
  3d grid and FFT values/proc = 1331 216
Step Temp Press PotEng KinEng TotEng E_pair E_bond E_angle E_dihed E_impro Volume Lx Ly Lz
152059    267.95991    210.20206   -25.298828    72.685121    47.386293   -36.046861    1.4975345    1.3577708    7.8897363 0.0029914552         8000           20           20           20
Averages over the last 51 of 102 rows, steps 177500 to 202059:
Temp Press PotEng KinEng TotEng E_pair E_bond E_angle E_dihed E_impro Volume Lx Ly Lz
302.811 -1074.5 15.0392 82.1386 97.1778 -65.2223 28.1869 21.1582 29.835 1.08139 1295.7 10.8994 10.8994 10.8994
Loop time of 27.429 on 1 procs for 50000 steps with 92 atoms

write_data	output.data nofix
System init for write_data ...
PPPM initialization ...
  G vector (1/distance) = 0.23186355
  grid = 4 4 4
  stencil order = 5
  estimated absolute RMS force accuracy = 0.0050360032
  estimated relative force accuracy = 1.5165774e-05
  3d grid and FFT values/proc = 729 64
