LAMMPS (14 Dec 2021)
package omp 0
using multi-threaded neighbor list subroutines
package omp 1
using multi-threaded neighbor list subroutines

# ----------------- Init Section -----------------

include "system.in.init"
    # Default styles and settings for AMBER based force-fields:
    units           real
    atom_style      full
    bond_style      hybrid harmonic
    angle_style     hybrid harmonic
    dihedral_style  hybrid fourier
    improper_style  hybrid cvff
    pair_style      hybrid lj/charmm/coul/long 9.0 10.0 10.0
    kspace_style    pppm 0.0001

    # NOTE: If you do not want to use long-range coulombic forces,
    #       comment out the two lines above and uncomment this line:
    # pair_style      hybrid lj/charmm/coul/charmm 9.0 10.0

    pair_modify     mix arithmetic
    special_bonds   amber

# ----------------- Atom Definition Section -----------------

read_data "cleanedsystem.data"
Reading data file ...
  orthogonal box = (0 0 0) to (220 220 220)
  reading atoms ...
  193113 atoms
  scanning bonds ...
  scanning angles ...
  scanning dihedrals ...
  scanning impropers ...
  reading bonds ...
  193113 bonds
  reading angles ...
  253560 angles
  reading dihedrals ...
  386226 dihedrals
  reading impropers ...
  49014 impropers
Finding 1-2 1-3 1-4 neighbors ...
     3 = max # of 1-2 neighbors
     6 = max # of 1-3 neighbors
    11 = max # of 1-4 neighbors
    13 = max # of special neighbors

# ----------------- Settings Section -----------------

include "cleanedsystem.in.settings"
pair_coeff 1 1 lj/charmm/coul/long 0.0860 3.39966950842 # OPLS
pair_coeff 2 2 lj/charmm/coul/long 0.2100 3.39966950842 # cp C DLM 11/2007 well depth from OPLS replacing 0.0860
pair_coeff 3 3 lj/charmm/coul/long 0.0860 3.39966950842 # sp2 atom in the middle of C=CD-CD=C
pair_coeff 4 4 lj/charmm/coul/long 0.0860 3.39966950842 # OPLS
pair_coeff 5 5 lj/charmm/coul/long 0.0150 2.59964245953 # Spellmeyer
pair_coeff 6 6 lj/charmm/coul/long 0.0157 1.06907846177 # !Ferguson base pair geom.
pair_coeff 7 7 lj/charmm/coul/long 0.0000 0.0 # OPLS Jorgensen, JACS,110,(1988),1657
pair_coeff 8 8 lj/charmm/coul/long 0.1700 3.24999852378 # OPLS
pair_coeff 9 9 lj/charmm/coul/long 0.1700 3.24999852378 # OPLS
pair_coeff 10 10 lj/charmm/coul/long 0.1700 3.24999852378 # OPLS
pair_coeff 11 11 lj/charmm/coul/long 0.2100 2.95992190115 # OPLS
pair_coeff 12 12 lj/charmm/coul/long 0.2104 3.06647338784 # OPLS
bond_coeff 1 harmonic 404.1 1.4400 # SOUECE3 1
bond_coeff 2 harmonic 777.0 1.1660 # SOURCE2 9 0.0052
bond_coeff 3 harmonic 357.2 1.4800 # SOUECE3 1
bond_coeff 4 harmonic 623.6 1.2244 # SOURCE4 15 0.0036
bond_coeff 5 harmonic 425.4 1.3330 # SOURCE1 53 0.0000
bond_coeff 6 harmonic 478.4 1.3870 # SOURCE1 6228 0.0147
bond_coeff 7 harmonic 344.3 1.0870 # SOURCE3 1496 0.0045
bond_coeff 8 harmonic 551.6 1.3030 # SOURCE4 7 0.0058
bond_coeff 9 harmonic 372.3 1.4220 # SOURCE3 9 0.0098
bond_coeff 10 harmonic 449.0 1.3640 # SOURCE1 137 0.0085
bond_coeff 11 harmonic 349.7 1.4870 # SOURCE1 480 0.0055
bond_coeff 12 harmonic 478.2 1.3450 # SOURCE1 1235 0.0215
bond_coeff 13 harmonic 648.0 1.2140 # SOURCE1 3682 0.0165
bond_coeff 14 harmonic 375.5 1.0290 # SOURCE3 108 0.0096
bond_coeff 15 harmonic 410.2 1.0090 # SOURCE3 149 0.0098
bond_coeff 16 harmonic 401.2 1.0140 # SOURCE3 209 0.0091
bond_coeff 17 harmonic 369.6 0.9740 # SOURCE3 367 0.0105
angle_coeff 1 harmonic 76.69 121.23 # SOURCE4 6 0.0958
angle_coeff 2 harmonic 65.86 120.00 # SOURCE3 1
angle_coeff 3 harmonic 64.69 120.60 # SOURCE3 1
angle_coeff 4 harmonic 67.18 119.97 # SOURCE3 1969 0.3480
angle_coeff 5 harmonic 48.46 120.01 # SOURCE3 2980 0.2511
angle_coeff 6 harmonic 70.95 119.57 # SOURCE3 1
angle_coeff 7 harmonic 67.97 119.89 # SOURCE3 18 0.2095
angle_coeff 8 harmonic 69.34 120.13 # SOURCE3 193 0.6341
angle_coeff 9 harmonic 64.64 120.14 # SOURCE3 40 0.4788
angle_coeff 10 harmonic 68.47 115.14 # SOURCE4 571 1.4648
angle_coeff 11 harmonic 68.67 123.44 # SOURCE3 18 2.5574
angle_coeff 12 harmonic 75.83 122.03 # SOURCE3 221 2.3565
angle_coeff 13 harmonic 50.01 120.00 # SOURCE3 1
angle_coeff 14 harmonic 47.36 115.94 # SOURCE4 537 1.8890
angle_coeff 15 harmonic 64.29 123.71 # SOURCE3 10 3.8159
angle_coeff 16 harmonic 49.21 118.46 # SOURCE3 157 2.4094
angle_coeff 17 harmonic 49.08 116.13 # SOURCE4 1780 1.2853
angle_coeff 18 harmonic 49.91 108.98 # SOURCE3 6 2.2379
dihedral_coeff 1 fourier 1 1.0 2 180.0 # optimized by Junmei Wang, Jan-2013
dihedral_coeff 2 fourier 1 2.5 2 180.0 # AA,NMA (no c-n3, c-n4, c-nh)
dihedral_coeff 3 fourier 1 0.0 2 180.0 #
dihedral_coeff 4 fourier 1 0.7 2 180.0 # optimized by Junmei Wang, March 2013
dihedral_coeff 5 fourier 1 1.05 2 180.0 # parm99
dihedral_coeff 6 fourier 1 3.625 2 180.0 # intrpol.bsd.on C6H6
dihedral_coeff 7 fourier 1 0.45 2 180.0 #
dihedral_coeff 8 fourier 1 0.0 3 180.0 #
dihedral_coeff 9 fourier 1 1.05 2 180.0 #
dihedral_coeff 10 fourier 2 2.5 2 180.0 2.0 1 0.0 # JCC,7,(1986),230
improper_coeff 1 cvff 10.5 -1 2 # JCC,7,(1986),230
improper_coeff 2 cvff 1.1 -1 2 # bsd.on C6H6 nmodes
improper_coeff 3 cvff 1.1 -1 2 # JCC,7,(1986),230
improper_coeff 4 cvff 1.1 -1 2 #

# ----------------- Run Section -----------------

neighbor	    2.0 bin
neigh_modify	every 1 delay 0 check yes
timestep        2.0
dielectric      10

dump		    min all xtc 5000 min.xtc
thermo_style    custom step temp press pe ke etotal epair ebond eangle edihed eimp vol
thermo          5000

# Minimization
min_style       sd
minimize 	    0 1e-8 100000 100000
PPPM initialization ...
  G vector (1/distance) = 0.14522843
  grid = 32 32 32
  stencil order = 5
  estimated absolute RMS force accuracy = 0.04076337
  estimated relative force accuracy = 0.00012275768
  3d grid and FFT values/proc = 2197 512
  generated 66 of 66 mixed pair_coeff terms from arithmetic mixing rule
Hybrid pair style last /omp style lj/charmm/coul/long
Last active /omp style is kspace_style pppm/omp
  update every 1 steps, delay 0 steps, check yes
Step Temp Press PotEng KinEng TotEng E_pair E_bond E_angle E_dihed E_impro Volume
0            0   -3547.5983     300455.8            0     300455.8    217546.81    78623.545    4283.6519    1.6470748   0.14547781     10648000
Averages over the last 6 of 12 rows, steps 30000 to 50038:
Temp Press PotEng KinEng TotEng E_pair E_bond E_angle E_dihed E_impro Volume
0 -274.64 -176461 0 -176461 -180857 2747.49 711.079 920.895 16.8107 1.0648e+07
Loop time of 1762.38 on 64 procs for 50038 steps with 193113 atoms

Minimization stats:
  Stopping criterion = max force evaluations
  Energy initial, next-to-last, final =
  Force two-norm initial, final = 92321.077 88.580684
  Force max component initial, final = 35330.986 37.740177
  Final line search alpha, max atom move = 0.014263796 0.53831818
  Iterations, force evaluations = 50038 100001

write_data 	    min.data
System init for write_data ...
PPPM initialization ...
  G vector (1/distance) = 0.14522843
  grid = 32 32 32
  stencil order = 5
  estimated absolute RMS force accuracy = 0.04076337
  estimated relative force accuracy = 0.00012275768
  3d grid and FFT values/proc = 2197 512
  generated 66 of 66 mixed pair_coeff terms from arithmetic mixing rule
Hybrid pair style last /omp style lj/charmm/coul/long
Last active /omp style is kspace_style pppm/omp

velocity all create 300.0 123456 dist gaussian
dump		    pre_polym all xtc 5000 pre_polym.xtc

# 500 ps NVT (0.5 ns total)
fix 1 all nve
fix 3 all temp/rescale 1 300.0 300.0 1.0 1.0
run     250000
PPPM initialization ...
  G vector (1/distance) = 0.14522843
  grid = 32 32 32
  stencil order = 5
  estimated absolute RMS force accuracy = 0.04076337
  estimated relative force accuracy = 0.00012275768
  3d grid and FFT values/proc = 2197 512
  generated 66 of 66 mixed pair_coeff terms from arithmetic mixing rule
Hybrid pair style last /omp style lj/charmm/coul/long
Last active /omp style is kspace_style pppm/omp
Step Temp Press PotEng KinEng TotEng E_pair E_bond E_angle E_dihed E_impro Volume
50038          300    491.76267   -188504.45    172689.06    -15815.39   -192855.15    2696.1012      708.798    928.43525    17.371366     10648000
Averages over the last 26 of 52 rows, steps 180000 to 300038:
Temp Press PotEng KinEng TotEng E_pair E_bond E_angle E_dihed E_impro Volume
299.995 -80.4809 -135055 172686 37631 -282928 65416.5 41953.9 38731.4 1770.65 1.0648e+07
Loop time of 27017.8 on 64 procs for 250000 steps with 193113 atoms

unfix 1
unfix 3

write_restart pre_polym.restart
System init for write_restart ...
PPPM initialization ...
  G vector (1/distance) = 0.14522843
  grid = 32 32 32
  stencil order = 5
  estimated absolute RMS force accuracy = 0.04076337
  estimated relative force accuracy = 0.00012275768
  3d grid and FFT values/proc = 2197 512
  generated 66 of 66 mixed pair_coeff terms from arithmetic mixing rule
Hybrid pair style last /omp style lj/charmm/coul/long
Last active /omp style is kspace_style pppm/omp

# 500 ps NPT (1 ns total)
fix 3 all npt temp 300 300 100 iso 1 1 100
run           250000
PPPM initialization ...
  G vector (1/distance) = 0.14522843
  grid = 32 32 32
  stencil order = 5
  estimated absolute RMS force accuracy = 0.04076337
  estimated relative force accuracy = 0.00012275768
  3d grid and FFT values/proc = 2197 512
  generated 66 of 66 mixed pair_coeff terms from arithmetic mixing rule
Hybrid pair style last /omp style lj/charmm/coul/long
Last active /omp style is kspace_style pppm/omp
Step Temp Press PotEng KinEng TotEng E_pair E_bond E_angle E_dihed E_impro Volume
300038    300.42699   -107.35192   -136392.85    172934.85    36541.999   -284489.94    65472.405    42118.254    38727.299    1779.1356     10648000
Averages over the last 26 of 52 rows, steps 430000 to 550038:
Temp Press PotEng KinEng TotEng E_pair E_bond E_angle E_dihed E_impro Volume
299.991 -1.42507 -151532 172684 21152.2 -299346 65338 42006.8 38699.4 1770.18 2.42642e+06
Loop time of 12618 on 64 procs for 250000 steps with 193113 atoms

unfix 3

write_restart pre_polym.restart
System init for write_restart ...
PPPM initialization ...
  G vector (1/distance) = 0.16940653
  grid = 25 25 25
  stencil order = 5
  estimated absolute RMS force accuracy = 0.040458
  estimated relative force accuracy = 0.00012183807
  3d grid and FFT values/proc = 1728 400
  generated 66 of 66 mixed pair_coeff terms from arithmetic mixing rule
Hybrid pair style last /omp style lj/charmm/coul/long
Last active /omp style is kspace_style pppm/omp

# 500 ps NVT (1.5 ns total)
fix 1 all nve
fix 3 all temp/rescale 1 300.0 300.0 1.0 1.0
run           250000
PPPM initialization ...
  G vector (1/distance) = 0.16940653
  grid = 25 25 25
  stencil order = 5
  estimated absolute RMS force accuracy = 0.040458
  estimated relative force accuracy = 0.00012183807
  3d grid and FFT values/proc = 1728 400
  generated 66 of 66 mixed pair_coeff terms from arithmetic mixing rule
Hybrid pair style last /omp style lj/charmm/coul/long
Last active /omp style is kspace_style pppm/omp
Step Temp Press PotEng KinEng TotEng E_pair E_bond E_angle E_dihed E_impro Volume
550038    299.72163   -124.04558    -154073.2    172528.82    18455.624   -301605.48    65150.345    42036.615    38601.244    1744.0832    2360347.9
Averages over the last 26 of 52 rows, steps 680000 to 800038:
Temp Press PotEng KinEng TotEng E_pair E_bond E_angle E_dihed E_impro Volume
300.008 -181.112 -153402 172694 19292.1 -301239 65285 41967.6 38811.5 1773.27 2.36035e+06
Loop time of 9923.78 on 64 procs for 250000 steps with 193113 atoms
