LAMMPS (29 Sep 2021 - Update 3)

# ----------------- Init Section -----------------

include "system.in.init"
    # Default styles and settings for AMBER based force-fields:
    units           real
    atom_style      full
    bond_style      hybrid harmonic
    angle_style     hybrid harmonic
    dihedral_style  hybrid fourier
    improper_style  hybrid cvff
    pair_style      hybrid lj/charmm/coul/long 9.0 10.0 10.0
    kspace_style    pppm 0.0001

    # NOTE: If you do not want to use long-range coulombic forces,
    #       comment out the two lines above and uncomment this line:
    # pair_style      hybrid lj/charmm/coul/charmm 9.0 10.0

    pair_modify     mix arithmetic
    special_bonds   amber

# ----------------- Atom Definition Section -----------------

read_data "cleanedsystem.data" extra/bond/per/atom 1 extra/angle/per/atom 12 extra/dihedral/per/atom 12 extra/improper/per/atom 12 extra/special/per/atom 12
Reading data file ...
  orthogonal box = (0.0000000 0.0000000 0.0000000) to (10.000000 10.000000 10.000000)
  reading atoms ...
  92 atoms
  scanning bonds ...
  scanning angles ...
  scanning dihedrals ...
  scanning impropers ...
  reading bonds ...
  92 bonds
  reading angles ...
  116 angles
  reading dihedrals ...
  184 dihedrals
  reading impropers ...
  22 impropers
Finding 1-2 1-3 1-4 neighbors ...
     3 = max # of 1-2 neighbors
     6 = max # of 1-3 neighbors
    11 = max # of 1-4 neighbors
    25 = max # of special neighbors

# ----------------- Settings Section -----------------

include "cleanedsystem.in.settings"
pair_coeff 1 1 lj/charmm/coul/long 0.2100 3.39966950842 # cp C DLM 11/2007 well depth from OPLS replacing 0.0860
pair_coeff 2 2 lj/charmm/coul/long 0.0860 3.39966950842 # sp2 atom in the middle of C=CD-CD=C
pair_coeff 3 3 lj/charmm/coul/long 0.0860 3.39966950842 # OPLS
pair_coeff 4 4 lj/charmm/coul/long 0.0150 2.59964245953 # Spellmeyer
pair_coeff 5 5 lj/charmm/coul/long 0.0157 1.06907846177 # !Ferguson base pair geom.
pair_coeff 6 6 lj/charmm/coul/long 0.0000 0.0 # OPLS Jorgensen, JACS,110,(1988),1657
pair_coeff 7 7 lj/charmm/coul/long 0.1700 3.24999852378 # OPLS
pair_coeff 8 8 lj/charmm/coul/long 0.1700 3.24999852378 # OPLS
pair_coeff 9 9 lj/charmm/coul/long 0.2100 2.95992190115 # OPLS
pair_coeff 10 10 lj/charmm/coul/long 0.2104 3.06647338784 # OPLS
bond_coeff 1 harmonic 404.1 1.4400 # SOUECE3 1
bond_coeff 2 harmonic 777.0 1.1660 # SOURCE2 9 0.0052
bond_coeff 3 harmonic 357.2 1.4800 # SOUECE3 1
bond_coeff 4 harmonic 390.5 1.4070 # SOURCE3 9 0.0124
bond_coeff 5 harmonic 623.6 1.2244 # SOURCE4 15 0.0036
bond_coeff 6 harmonic 425.4 1.3330 # SOURCE1 53 0.0000
bond_coeff 7 harmonic 478.4 1.3870 # SOURCE1 6228 0.0147
bond_coeff 8 harmonic 344.3 1.0870 # SOURCE3 1496 0.0045
bond_coeff 9 harmonic 551.6 1.3030 # SOURCE4 7 0.0058
bond_coeff 10 harmonic 372.3 1.4220 # SOURCE3 9 0.0098
bond_coeff 11 harmonic 375.5 1.0290 # SOURCE3 108 0.0096
bond_coeff 12 harmonic 410.2 1.0090 # SOURCE3 149 0.0098
bond_coeff 13 harmonic 369.6 0.9740 # SOURCE3 367 0.0105
angle_coeff 1 harmonic 76.69 121.23 # SOURCE4 6 0.0958
angle_coeff 2 harmonic 65.86 120.00 # SOURCE3 1
angle_coeff 3 harmonic 64.69 120.60 # SOURCE3 1
angle_coeff 4 harmonic 67.18 119.97 # SOURCE3 1969 0.3480
angle_coeff 5 harmonic 48.46 120.01 # SOURCE3 2980 0.2511
angle_coeff 6 harmonic 70.95 119.57 # SOURCE3 1
angle_coeff 7 harmonic 67.97 119.89 # SOURCE3 18 0.2095
angle_coeff 8 harmonic 50.01 120.00 # SOURCE3 1
angle_coeff 9 harmonic 64.88 116.54 # SOURCE3 1
angle_coeff 10 harmonic 47.33 118.36 # SOURCE4 40 1.8005
angle_coeff 11 harmonic 47.36 115.94 # SOURCE4 537 1.8890
angle_coeff 12 harmonic 49.91 108.98 # SOURCE3 6 2.2379
dihedral_coeff 1 fourier 1 0.0 2 180.0 #
dihedral_coeff 2 fourier 1 0.7 2 180.0 # optimized by Junmei Wang, March 2013
dihedral_coeff 3 fourier 1 0.65 2 180.0 #
dihedral_coeff 4 fourier 1 1.05 2 180.0 # parm99
dihedral_coeff 5 fourier 1 3.625 2 180.0 # intrpol.bsd.on C6H6
dihedral_coeff 6 fourier 1 0.45 2 180.0 #
dihedral_coeff 7 fourier 1 0.0 3 180.0 #
improper_coeff 1 cvff 1.1 -1 2 # bsd.on C6H6 nmodes
improper_coeff 2 cvff 1.1 -1 2 # JCC,7,(1986),230
improper_coeff 3 cvff 1.1 -1 2 #

# ----------------- Run Section -----------------

neighbor	2.5 bin
neigh_modify	every 1 delay 0 check yes
timestep        1.0

# Initial minimization and equilibration
dump		init all xtc 500 pre_react.xtc
thermo_style custom step temp press pe ke etotal epair ebond eangle edihed eimp vol
thermo 500

minimize 	0 0 1000 10000
PPPM initialization ...
  G vector (1/distance) = 0.26094846
  grid = 5 5 5
  stencil order = 5
  estimated absolute RMS force accuracy = 0.0078926974
  estimated relative force accuracy = 2.3768624e-05
  3d grid and FFT values/proc = 1728 125
  update every 1 steps, delay 0 steps, check yes
Step Temp Press PotEng KinEng TotEng E_pair E_bond E_angle E_dihed E_impro Volume
0            0 1.2357898e+15 4.5056813e+12            0 4.5056813e+12 4.5056813e+12    40.812094       1.6586 0.00069672911 6.3478241e-05         1000
Loop time of 1.56089 on 1 procs for 704 steps with 92 atoms

Minimization stats:
  Stopping criterion = linesearch alpha is zero
  Energy initial, next-to-last, final =
  Force two-norm initial, final = 3.3964684e+14 1.2290151
  Force max component initial, final = 2.1552046e+14 0.26889857
  Final line search alpha, max atom move = 4.2443018e-09 1.1412867e-09
  Iterations, force evaluations = 704 1796

velocity all create 300.0 123456 dist gaussian

fix 3 all nvt temp 300.0 300.0 100.0
run           10000
PPPM initialization ...
  G vector (1/distance) = 0.26094846
  grid = 5 5 5
  stencil order = 5
  estimated absolute RMS force accuracy = 0.0078926974
  estimated relative force accuracy = 2.3768624e-05
  3d grid and FFT values/proc = 1728 125
Step Temp Press PotEng KinEng TotEng E_pair E_bond E_angle E_dihed E_impro Volume
704          300     25348.46    -948.2646    81.376114   -866.88848   -962.11271     1.733491    2.0278696    10.008683  0.078069654         1000
Averages over the last 11 of 22 rows, steps 6000 to 10704:
Temp Press PotEng KinEng TotEng E_pair E_bond E_angle E_dihed E_impro Volume
297.107 26943.9 -880.242 80.5913 -799.65 -954.089 26.2706 18.8569 27.75 0.97 1000
Loop time of 6.65129 on 1 procs for 10000 steps with 92 atoms

unfix 3

fix 3 all npt temp 300 300 100 iso 1000 1000 100
run           10000
PPPM initialization ...
  G vector (1/distance) = 0.26094846
  grid = 5 5 5
  stencil order = 5
  estimated absolute RMS force accuracy = 0.0078926974
  estimated relative force accuracy = 2.3768624e-05
  3d grid and FFT values/proc = 1728 125
Step Temp Press PotEng KinEng TotEng E_pair E_bond E_angle E_dihed E_impro Volume
10704    287.96911    32451.235    -889.8484     78.11269   -811.73571   -960.67743    19.701565    18.811907    31.411321   0.90424279         1000
Averages over the last 11 of 22 rows, steps 16000 to 20704:
Temp Press PotEng KinEng TotEng E_pair E_bond E_angle E_dihed E_impro Volume
308.677 1994.5 -843.792 83.7298 -760.062 -912.528 27.7811 14.9859 25.0361 0.932586 1563.44
Loop time of 4.96989 on 1 procs for 10000 steps with 92 atoms

unfix 3

write_data	pre_react.data
System init for write_data ...
PPPM initialization ...
  G vector (1/distance) = 0.24885423
  grid = 5 5 5
  stencil order = 5
  estimated absolute RMS force accuracy = 0.011875725
  estimated relative force accuracy = 3.5763394e-05
  3d grid and FFT values/proc = 1728 125

# Polymerization
dump 		polym all xtc 500 react.xtc

molecule 	pre pre_molecule.data
Read molecule template pre:
  1 molecules
  0 fragments
  18 atoms with max type 9
  16 bonds with max type 11
  19 angles with max type 8
  20 dihedrals with max type 7
  4 impropers with max type 1
molecule	post post_molecule.data
Read molecule template post:
  1 molecules
  0 fragments
  18 atoms with max type 9
  17 bonds with max type 12
  21 angles with max type 11
  28 dihedrals with max type 6
  6 impropers with max type 3

fix		fxrct all bond/react stabilization yes statted_grp .03 		 react rxn1 all 100 0.0 3 pre post automap.data stabilize_steps 100
dynamic group bond_react_MASTER_group defined
dynamic group statted_grp_REACT defined

fix 		1 statted_grp_REACT nvt temp 300.0 300.0 100
fix 		2 bond_react_MASTER_group temp/rescale 1 300.0 300.0 1 1

thermo_style custom step f_fxrct[1]
thermo          500
run		      20000

CITE-CITE-CITE-CITE-CITE-CITE-CITE-CITE-CITE-CITE-CITE-CITE-CITE

Your simulation uses code contributions which should be cited:

- fix bond/react: reacter.org

@Article{Gissinger17,
 author = {J. R. Gissinger, B. D. Jensen, K. E. Wise},
 title = {Modeling chemical reactions in classical molecular dynamics simulations},
 journal = {Polymer},
 year =    2017,
 volume =  128,
 pages =   {211--217}
}

@Article{Gissinger20,
 author = {J. R. Gissinger, B. D. Jensen, K. E. Wise},
 title = {REACTER: A Heuristic Method for Reactive Molecular Dynamics},
 journal = {Macromolecules},
 year =    2020,
 volume =  53,
 pages =   {9953--9961}
}

CITE-CITE-CITE-CITE-CITE-CITE-CITE-CITE-CITE-CITE-CITE-CITE-CITE

PPPM initialization ...
  G vector (1/distance) = 0.24885423
  grid = 5 5 5
  stencil order = 5
  estimated absolute RMS force accuracy = 0.011875725
  estimated relative force accuracy = 3.5763394e-05
  3d grid and FFT values/proc = 1728 125
  update every 1 steps, delay 0 steps, check yes
Step f_fxrct[1]
   20704            0
   21000            2
   21500            3
   22000            3
   22500            3
   23000            3
   23500            3
   24000            3
   24500            3
   25000            4
   25500            4
   26000            4
   26500            4
   27000            4
   27500            4
   28000            4
   28500            4
   29000            4
   29500            4
   30000            4
   30500            4
   31000            4
   31500            4
   32000            4
   32500            4
   33000            4
   33500            4
   34000            4
   34500            4
   35000            4
   35500            4
   36000            4
   36500            4
   37000            4
   37500            4
   38000            4
   38500            4
   39000            4
   39500            4
   40000            4
   40500            4
   40704            4
Loop time of 9.91368 on 1 procs for 20000 steps with 92 atoms

write_data	post_react.data
System init for write_data ...
PPPM initialization ...
  G vector (1/distance) = 0.24886696
  grid = 5 5 5
  stencil order = 5
  estimated absolute RMS force accuracy = 0.008280848
  estimated relative force accuracy = 2.4937528e-05
  3d grid and FFT values/proc = 1728 125

unfix 1
unfix 2
unfix fxrct

# Post reaction minimization and equilibration
dump 		traj all xtc 500 post_react.xtc
thermo_style custom step temp press pe ke etotal epair ebond eangle edihed eimp vol
thermo 500

thermo_style one
minimize 	0 0 10000 100000
PPPM initialization ...
  G vector (1/distance) = 0.24886696
  grid = 5 5 5
  stencil order = 5
  estimated absolute RMS force accuracy = 0.008280848
  estimated relative force accuracy = 2.4937528e-05
  3d grid and FFT values/proc = 1728 125
  update every 1 steps, delay 0 steps, check yes
Step Temp E_pair E_mol TotEng Press
40704     306.1969   -368.88778     105.0801   -180.75064    5779.2119
Loop time of 0.934371 on 1 procs for 585 steps with 92 atoms

Minimization stats:
  Stopping criterion = linesearch alpha is zero
  Energy initial, next-to-last, final =
  Force two-norm initial, final = 345.21591 1.9794106
  Force max component initial, final = 63.141722 0.43967505
  Final line search alpha, max atom move = 1.7603457e-09 7.7398008e-10
  Iterations, force evaluations = 585 1489

fix 3 all nvt temp 300.0 300.0 100.0
run           10000
PPPM initialization ...
  G vector (1/distance) = 0.24886696
  grid = 5 5 5
  stencil order = 5
  estimated absolute RMS force accuracy = 0.008280848
  estimated relative force accuracy = 2.4937528e-05
  3d grid and FFT values/proc = 1728 125
Step Temp E_pair E_mol TotEng Press
41289     306.1969   -387.25767    27.002983   -277.19764    2005.0846
Averages over the last 11 of 22 rows, steps 46500 to 51289:
Temp E_pair E_mol TotEng Press
298.35 -368.934 90.5507 -197.455 1760.8
Loop time of 4.8369 on 1 procs for 10000 steps with 92 atoms

unfix 3

fix 3 all npt temp 300 300 100 iso 1000 1000 100
run           10000
PPPM initialization ...
  G vector (1/distance) = 0.24886696
  grid = 5 5 5
  stencil order = 5
  estimated absolute RMS force accuracy = 0.008280848
  estimated relative force accuracy = 2.4937528e-05
  3d grid and FFT values/proc = 1728 125
Step Temp E_pair E_mol TotEng Press Volume
51289    321.10327   -372.99809    92.174482   -193.72315   -4252.9064     1514.384
Averages over the last 11 of 22 rows, steps 56500 to 61289:
Temp E_pair E_mol TotEng Press Volume
307.165 -388.736 91.2189 -214.198 1449.72 1356.6
Loop time of 5.75681 on 1 procs for 10000 steps with 92 atoms

unfix 3

write_data	output.data
System init for write_data ...
PPPM initialization ...
  G vector (1/distance) = 0.25160425
  grid = 5 5 5
  stencil order = 5
  estimated absolute RMS force accuracy = 0.0075636284
  estimated relative force accuracy = 2.2777642e-05
  3d grid and FFT values/proc = 1728 125
