LAMMPS (29 Sep 2021 - Update 3)

# ----------------- Init Section -----------------

include "pre_react.in.init"
    # Default styles and settings for AMBER based force-fields:
    units           real
    atom_style      full
    bond_style      hybrid harmonic
    angle_style     hybrid harmonic
    dihedral_style  hybrid fourier
    improper_style  hybrid cvff
    pair_style      hybrid lj/charmm/coul/long 9.0 10.0 10.0
    kspace_style    pppm 0.0001

    # NOTE: If you do not want to use long-range coulombic forces,
    #       comment out the two lines above and uncomment this line:
    # pair_style      hybrid lj/charmm/coul/charmm 9.0 10.0

    pair_modify     mix arithmetic
    special_bonds   amber

# ----------------- Atom Definition Section -----------------

read_data "cleanedpre_react.data" extra/bond/per/atom 1 extra/angle/per/atom 12 extra/dihedral/per/atom 12 extra/improper/per/atom 12 extra/special/per/atom 12
Reading data file ...
  orthogonal box = (0.0000000 0.0000000 0.0000000) to (20.000000 20.000000 20.000000)
  reading atoms ...
  29 atoms
  scanning bonds ...
  scanning angles ...
  scanning dihedrals ...
  scanning impropers ...
  reading bonds ...
  29 bonds
  reading angles ...
  41 angles
  reading dihedrals ...
  58 dihedrals
  reading impropers ...
  7 impropers
Finding 1-2 1-3 1-4 neighbors ...
     3 = max # of 1-2 neighbors
     5 = max # of 1-3 neighbors
    10 = max # of 1-4 neighbors
    24 = max # of special neighbors

# ----------------- Settings Section -----------------

include "cleanedpre_react.in.settings"
pair_coeff 1 1 lj/charmm/coul/long 0.0860 3.39966950842 # OPLS
pair_coeff 2 2 lj/charmm/coul/long 0.0860 3.39966950842 # OPLS
pair_coeff 3 3 lj/charmm/coul/long 0.0150 2.59964245953 # Spellmeyer
pair_coeff 4 4 lj/charmm/coul/long 0.0157 1.06907846177 # !Ferguson base pair geom.
pair_coeff 5 5 lj/charmm/coul/long 0.1700 3.24999852378 # OPLS
pair_coeff 6 6 lj/charmm/coul/long 0.1700 3.24999852378 # OPLS
pair_coeff 7 7 lj/charmm/coul/long 0.2100 2.95992190115 # OPLS
bond_coeff 1 harmonic 478.4 1.3870 # SOURCE1 6228 0.0147
bond_coeff 2 harmonic 344.3 1.0870 # SOURCE3 1496 0.0045
bond_coeff 3 harmonic 372.3 1.4220 # SOURCE3 9 0.0098
bond_coeff 4 harmonic 449.0 1.3640 # SOURCE1 137 0.0085
bond_coeff 5 harmonic 349.7 1.4870 # SOURCE1 480 0.0055
bond_coeff 6 harmonic 478.2 1.3450 # SOURCE1 1235 0.0215
bond_coeff 7 harmonic 648.0 1.2140 # SOURCE1 3682 0.0165
bond_coeff 8 harmonic 410.2 1.0090 # SOURCE3 149 0.0098
bond_coeff 9 harmonic 401.2 1.0140 # SOURCE3 209 0.0091
angle_coeff 1 harmonic 67.18 119.97 # SOURCE3 1969 0.3480
angle_coeff 2 harmonic 48.46 120.01 # SOURCE3 2980 0.2511
angle_coeff 3 harmonic 67.97 119.89 # SOURCE3 18 0.2095
angle_coeff 4 harmonic 69.34 120.13 # SOURCE3 193 0.6341
angle_coeff 5 harmonic 64.64 120.14 # SOURCE3 40 0.4788
angle_coeff 6 harmonic 68.47 115.14 # SOURCE4 571 1.4648
angle_coeff 7 harmonic 68.67 123.44 # SOURCE3 18 2.5574
angle_coeff 8 harmonic 75.83 122.03 # SOURCE3 221 2.3565
angle_coeff 9 harmonic 47.36 115.94 # SOURCE4 537 1.8890
angle_coeff 10 harmonic 64.29 123.71 # SOURCE3 10 3.8159
angle_coeff 11 harmonic 49.21 118.46 # SOURCE3 157 2.4094
angle_coeff 12 harmonic 49.08 116.13 # SOURCE4 1780 1.2853
dihedral_coeff 1 fourier 1 1.0 2 180.0 # optimized by Junmei Wang, Jan-2013
dihedral_coeff 2 fourier 1 2.5 2 180.0 # AA,NMA (no c-n3, c-n4, c-nh)
dihedral_coeff 3 fourier 1 3.625 2 180.0 # intrpol.bsd.on C6H6
dihedral_coeff 4 fourier 1 0.45 2 180.0 #
dihedral_coeff 5 fourier 1 1.05 2 180.0 #
dihedral_coeff 6 fourier 2 2.5 2 180.0 2.0 1 0.0 # JCC,7,(1986),230
improper_coeff 1 cvff 10.5 -1 2 # JCC,7,(1986),230
improper_coeff 2 cvff 1.1 -1 2 # bsd.on C6H6 nmodes
improper_coeff 3 cvff 1.1 -1 2 # JCC,7,(1986),230

# ----------------- Run Section -----------------

molecule 	pre pre_molecule.data
Read molecule template pre:
  1 molecules
  0 fragments
  18 atoms with max type 7
  16 bonds with max type 9
  20 angles with max type 12
  20 dihedrals with max type 5
  4 impropers with max type 2
molecule	post post_molecule.data
Read molecule template post:
  1 molecules
  0 fragments
  18 atoms with max type 7
  17 bonds with max type 8
  24 angles with max type 11
  28 dihedrals with max type 6
  6 impropers with max type 3

neighbor		2.5 bin
neigh_modify	every 1 delay 0 check yes

minimize 	1.0e-6 1.0e-6 1000 10000
PPPM initialization ...
  G vector (1/distance) = 0.2412627
  grid = 8 8 8
  stencil order = 5
  estimated absolute RMS force accuracy = 0.007054546
  estimated relative force accuracy = 2.1244556e-05
  3d grid and FFT values/proc = 2744 512
  update every 1 steps, delay 0 steps, check yes
Step Temp E_pair E_mol TotEng Press
0            0   -24.264461    1.0701347   -23.194327    941.67192
Loop time of 0.138369 on 1 procs for 524 steps with 29 atoms

Minimization stats:
  Stopping criterion = energy tolerance
  Energy initial, next-to-last, final =
  Force two-norm initial, final = 248.09565 0.40361320
  Force max component initial, final = 172.74891 0.10864152
  Final line search alpha, max atom move = 0.64435275 0.070003461
  Iterations, force evaluations = 524 1042

dump		init all xtc 500 init.xtc
dump_modify init pbc yes
thermo_style    custom step temp press pe ke etotal epair ebond eangle edihed eimp vol lx ly lz
thermo      500

min_style   sd
minimize 	0 0 10000 10000
PPPM initialization ...
  G vector (1/distance) = 0.2412627
  grid = 8 8 8
  stencil order = 5
  estimated absolute RMS force accuracy = 0.007054546
  estimated relative force accuracy = 2.1244556e-05
  3d grid and FFT values/proc = 2744 512
Step Temp Press PotEng KinEng TotEng E_pair E_bond E_angle E_dihed E_impro Volume Lx Ly Lz
524            0   -10.461289    -81.21346            0    -81.21346   -83.019722    0.4176428    0.1405981     1.245293 0.0027286797         8000           20           20           20
Averages over the last 5 of 10 rows, steps 3000 to 4766:
Temp Press PotEng KinEng TotEng E_pair E_bond E_angle E_dihed E_impro Volume Lx Ly Lz
0 -11.0489 -81.2456 0 -81.2456 -83.068 0.418668 0.138469 1.26241 0.00284953 8000 20 20 20
Loop time of 1.12279 on 1 procs for 4242 steps with 29 atoms

Minimization stats:
  Stopping criterion = linesearch alpha is zero
  Energy initial, next-to-last, final =
  Force two-norm initial, final = 0.40361320 0.086332941
  Force max component initial, final = 0.10864152 0.028215371
  Final line search alpha, max atom move = 9.5367432e-07 2.6908275e-08
  Iterations, force evaluations = 4242 8537

write_data	min.data
System init for write_data ...
PPPM initialization ...
  G vector (1/distance) = 0.2412627
  grid = 8 8 8
  stencil order = 5
  estimated absolute RMS force accuracy = 0.007054546
  estimated relative force accuracy = 2.1244556e-05
  3d grid and FFT values/proc = 2744 512

timestep        1.0

fix 3 all nvt temp 300.0 300.0 100.0
run           500
PPPM initialization ...
  G vector (1/distance) = 0.2412627
  grid = 8 8 8
  stencil order = 5
  estimated absolute RMS force accuracy = 0.007054546
  estimated relative force accuracy = 2.1244556e-05
  3d grid and FFT values/proc = 2744 512
Step Temp Press PotEng KinEng TotEng E_pair E_bond E_angle E_dihed E_impro Volume Lx Ly Lz
4766            0   -11.050307   -81.250113            0   -81.250113   -83.077212   0.41856886   0.13847031    1.2671884 0.0028723345         8000           20           20           20
Loop time of 0.0618441 on 1 procs for 500 steps with 29 atoms

unfix 3

fix 3 all npt temp 300 300 100 iso 1 1 100
run           500
PPPM initialization ...
  G vector (1/distance) = 0.2412627
  grid = 8 8 8
  stencil order = 5
  estimated absolute RMS force accuracy = 0.007054546
  estimated relative force accuracy = 2.1244556e-05
  3d grid and FFT values/proc = 2744 512
Step Temp Press PotEng KinEng TotEng E_pair E_bond E_angle E_dihed E_impro Volume Lx Ly Lz
5266    6.2053249   -12.042345   -81.314354   0.51791306   -80.796441   -83.266931    0.4177067   0.14246825    1.3887939  0.003607819         8000           20           20           20
Loop time of 0.101999 on 1 procs for 500 steps with 29 atoms

unfix 3

fix 3 all nvt temp 300.0 300.0 100.0
run           500
PPPM initialization ...
  G vector (1/distance) = 0.23743139
  grid = 6 6 6
  stencil order = 5
  estimated absolute RMS force accuracy = 0.01224647
  estimated relative force accuracy = 3.6879882e-05
  3d grid and FFT values/proc = 1331 216
Step Temp Press PotEng KinEng TotEng E_pair E_bond E_angle E_dihed E_impro Volume Lx Ly Lz
5766      275.235    43.798436   -78.970665    22.971851   -55.998814    -82.00061   0.51067877   0.14764597    2.3383551  0.033265107    3829.2141    15.644795    15.644795    15.644795
Loop time of 0.035337 on 1 procs for 500 steps with 29 atoms

unfix 3

fix 3 all npt temp 300 300 100 iso 1 1 100
run           500
PPPM initialization ...
  G vector (1/distance) = 0.23743139
  grid = 6 6 6
  stencil order = 5
  estimated absolute RMS force accuracy = 0.01224647
  estimated relative force accuracy = 3.6879882e-05
  3d grid and FFT values/proc = 1331 216
Step Temp Press PotEng KinEng TotEng E_pair E_bond E_angle E_dihed E_impro Volume Lx Ly Lz
6266    443.61331   -94.859893   -71.056813    37.025156   -34.031657   -82.103668    1.3172133    3.3185565    6.3264213  0.084663299    3829.2141    15.644795    15.644795    15.644795
Loop time of 0.062552 on 1 procs for 500 steps with 29 atoms

unfix 3

write_data	init.data
System init for write_data ...
PPPM initialization ...
  G vector (1/distance) = 0.26740786
  grid = 5 5 5
  stencil order = 5
  estimated absolute RMS force accuracy = 0.0059145155
  estimated relative force accuracy = 1.7811388e-05
  3d grid and FFT values/proc = 1728 125

dump 		polym all xtc 500 react.xtc

fix		fxrct all bond/react stabilization yes statted_grp .03 		 react rxn1 all 100 0.0 3 pre post automap.data stabilize_steps 100
dynamic group bond_react_MASTER_group defined
dynamic group statted_grp_REACT defined

fix 		1 statted_grp_REACT nvt temp 300.0 300.0 100
fix 		4 bond_react_MASTER_group temp/rescale 1 300.0 300.0 1 1

thermo_style custom step f_fxrct[1]
thermo          500
run		      50000

CITE-CITE-CITE-CITE-CITE-CITE-CITE-CITE-CITE-CITE-CITE-CITE-CITE

Your simulation uses code contributions which should be cited:

- fix bond/react: reacter.org

@Article{Gissinger17,
 author = {J. R. Gissinger, B. D. Jensen, K. E. Wise},
 title = {Modeling chemical reactions in classical molecular dynamics simulations},
 journal = {Polymer},
 year =    2017,
 volume =  128,
 pages =   {211--217}
}

@Article{Gissinger20,
 author = {J. R. Gissinger, B. D. Jensen, K. E. Wise},
 title = {REACTER: A Heuristic Method for Reactive Molecular Dynamics},
 journal = {Macromolecules},
 year =    2020,
 volume =  53,
 pages =   {9953--9961}
}

CITE-CITE-CITE-CITE-CITE-CITE-CITE-CITE-CITE-CITE-CITE-CITE-CITE

PPPM initialization ...
  G vector (1/distance) = 0.26740786
  grid = 5 5 5
  stencil order = 5
  estimated absolute RMS force accuracy = 0.0059145155
  estimated relative force accuracy = 1.7811388e-05
  3d grid and FFT values/proc = 1728 125
  update every 1 steps, delay 0 steps, check yes
Step f_fxrct[1]
    6766            0
    7000            1
    7500            1
    8000            1
    8500            1
    9000            1
    9500            1
   10000            2
   10500            2
   11000            2
   11500            2
   12000            2
   12500            2
   13000            2
   13500            2
   14000            2
   14500            2
   15000            2
   15500            2
   16000            2
   16500            2
   17000            2
   17500            2
   18000            2
   18500            2
   19000            2
   19500            2
   20000            2
   20500            2
   21000            2
   21500            2
   22000            2
   22500            2
   23000            2
   23500            2
   24000            2
   24500            2
   25000            2
   25500            2
   26000            2
   26500            2
   27000            2
   27500            2
   28000            2
   28500            2
   29000            2
   29500            2
   30000            2
   30500            2
   31000            2
   31500            2
   32000            2
   32500            2
   33000            2
   33500            2
   34000            2
   34500            2
   35000            2
   35500            2
   36000            2
   36500            2
   37000            2
   37500            2
   38000            2
   38500            2
   39000            2
   39500            2
   40000            2
   40500            2
   41000            2
   41500            2
   42000            2
   42500            2
   43000            2
   43500            2
   44000            2
   44500            2
   45000            2
   45500            2
   46000            2
   46500            2
   47000            2
   47500            2
   48000            2
   48500            2
   49000            2
   49500            2
   50000            2
   50500            2
   51000            2
   51500            2
   52000            2
   52500            2
   53000            2
   53500            2
   54000            2
   54500            2
   55000            2
   55500            2
   56000            2
   56500            2
   56766            2
Loop time of 5.82001 on 1 procs for 50000 steps with 29 atoms

unfix 1
unfix 4

thermo_style    custom step temp press pe ke etotal epair ebond eangle edihed eimp vol lx ly lz
thermo      500

min_style   sd
minimize 	0 0 10000 10000
PPPM initialization ...
  G vector (1/distance) = 0.2674008
  grid = 5 5 5
  stencil order = 5
  estimated absolute RMS force accuracy = 0.0049844851
  estimated relative force accuracy = 1.5010629e-05
  3d grid and FFT values/proc = 1728 125
Step Temp Press PotEng KinEng TotEng E_pair E_bond E_angle E_dihed E_impro Volume Lx Ly Lz
56766    371.85502   -8157.6607   -35.955557    31.036017     -4.91954   -98.489683    11.878398    23.269667    26.032263    1.3537979    795.99535    9.2676618    9.2676618    9.2676618
Loop time of 0.137342 on 1 procs for 431 steps with 29 atoms

Minimization stats:
  Stopping criterion = linesearch alpha is zero
  Energy initial, next-to-last, final =
  Force two-norm initial, final = 238.17775 0.79418236
  Force max component initial, final = 95.403489 0.27684979
  Final line search alpha, max atom move = 1.0764799e-08 2.9802322e-09
  Iterations, force evaluations = 431 910

fix 3 all npt temp 300 300 100 iso 1 1 100
run           50000
PPPM initialization ...
  G vector (1/distance) = 0.2674008
  grid = 5 5 5
  stencil order = 5
  estimated absolute RMS force accuracy = 0.0049844851
  estimated relative force accuracy = 1.5010629e-05
  3d grid and FFT values/proc = 1728 125
Step Temp Press PotEng KinEng TotEng E_pair E_bond E_angle E_dihed E_impro Volume Lx Ly Lz
57197    371.85502   -894.53812   -65.263523    31.036017   -34.227506     -95.8991    1.1022164    10.308073    19.116449   0.10883811    795.99535    9.2676618    9.2676618    9.2676618
Averages over the last 51 of 102 rows, steps 82500 to 107197:
Temp Press PotEng KinEng TotEng E_pair E_bond E_angle E_dihed E_impro Volume Lx Ly Lz
303.576 29.4042 -45.6425 25.3373 -20.3053 -95.8609 9.36932 12.6753 27.225 0.948709 634.216 8.58962 8.58962 8.58962
Loop time of 8.54221 on 1 procs for 50000 steps with 29 atoms

write_data	output.data
System init for write_data ...
PPPM initialization ...
  G vector (1/distance) = 0.25402911
  grid = 4 4 4
  stencil order = 5
  estimated absolute RMS force accuracy = 0.011077594
  estimated relative force accuracy = 3.3359846e-05
  3d grid and FFT values/proc = 1331 64
